Version 4
SHEET 1 1188 680
WIRE -688 -272 -688 -320
WIRE 272 -272 -144 -272
WIRE 704 -272 352 -272
WIRE -880 -128 -1008 -128
WIRE -688 -128 -688 -192
WIRE -688 -128 -800 -128
WIRE -640 -128 -688 -128
WIRE -368 -96 -416 -96
WIRE -288 -96 -368 -96
WIRE -144 -96 -144 -272
WIRE -144 -96 -208 -96
WIRE -64 -96 -144 -96
WIRE -640 -64 -688 -64
WIRE 704 -64 704 -272
WIRE 704 -64 160 -64
WIRE 784 -64 704 -64
WIRE -64 -32 -144 -32
WIRE -16 -32 -64 -32
WIRE -688 64 -688 -64
WIRE -368 64 -368 -96
WIRE -368 64 -688 64
WIRE -144 112 -144 -32
WIRE 32 112 -144 112
WIRE 288 112 112 112
WIRE 576 112 368 112
WIRE 704 112 704 -64
WIRE 704 112 656 112
WIRE -144 160 -144 112
WIRE -144 256 -144 224
FLAG -880 192 0
FLAG -144 256 0
FLAG 48 16 0
FLAG -528 -16 0
FLAG -688 -320 0
SYMBOL cktsym\\vsource -880 128 R0
SYMATTR Value 3.3V
SYMATTR InstName Vdd
SYMBOL cktsym\\opamprails 32 -64 R0
SYMATTR InstName U4
SYMBOL res 368 -288 R90
WINDOW 0 0 56 VBottom 2
WINDOW 3 32 56 VTop 2
SYMATTR InstName R1
SYMATTR Value {wc(10K, 0.01, 4)}
SYMBOL res -192 -112 R90
WINDOW 0 0 56 VBottom 2
WINDOW 3 32 56 VTop 2
SYMATTR InstName R5
SYMATTR Value {wc(10K, 0.01, 5)}
SYMBOL res 128 96 R90
WINDOW 0 -17 56 VBottom 2
WINDOW 3 32 56 VTop 2
SYMATTR InstName R6
SYMATTR Value {wc(3.01Meg, 0.01, 1)}
SYMBOL cap -160 160 R0
SYMATTR InstName C2
SYMATTR Value {wc(0.1uF, 0.05, 8)}
SYMBOL cktsym\\vdd_alt -880 64 R0
SYMATTR InstName U2
SYMBOL cktsym\\vdd_alt 48 -144 R0
SYMATTR InstName U3
SYMBOL cktsym\\opamprails -544 -96 R0
SYMATTR InstName U1
SYMBOL cktsym\\vdd_alt -528 -176 R0
SYMATTR InstName U5
SYMBOL res -784 -144 R90
WINDOW 0 0 56 VBottom 2
WINDOW 3 32 56 VTop 2
SYMATTR InstName R3
SYMATTR Value {wc(10K, 0.01, 7)}
SYMBOL cktsym\\vdd_alt -1008 -128 R0
SYMATTR InstName U6
SYMBOL res -704 -288 R0
SYMATTR InstName R2
SYMATTR Value {wc(10K, 0.01, 6)}
SYMBOL res 384 96 R90
WINDOW 0 0 56 VBottom 2
WINDOW 3 37 39 VTop 2
SYMATTR InstName R4
SYMATTR Value {wc(698K, 0.01, 2)}
SYMBOL res 672 96 R90
WINDOW 0 0 56 VBottom 2
WINDOW 3 32 56 VTop 2
SYMATTR InstName R7
SYMATTR Value {wc(909K, 0.01, 3)}
TEXT -752 384 Left 2 !.include engr2420.sub
TEXT -752 416 Left 2 !.tran 0 20 5
TEXT -752 448 Left 2 !.func wc(nom, tol, index) if (run==numruns, nom, if(binary(run, index), nom*(1+tol), nom*(1-tol)))
TEXT -752 304 Left 2 !.func binary(run, index) floor(run/(2**index))-2*floor(run/(2**(index+1)))
TEXT -752 352 Left 2 !.step param run 0 256 1
TEXT -752 328 Left 2 !.param numruns=256
